7byu.pdb.lig
 OpenBabel07112009413D

 21 19  0  0  0  0  0  0  0  0999 V2000
   -4.9600   22.9960  -28.7760 C   0  0  0  0  0  0  0  0  0  0  0  0
   -2.9740   21.7870  -29.4120 C   0  0  0  0  0  0  0  0  0  0  0  0
   -4.3550   21.7710  -29.1360 O   0  0  0  0  0  0  0  0  0  0  0  0
   -4.2500   24.7380  -27.2070 O   0  0  0  0  0  0  0  0  0  0  0  0
   -3.9710   24.1370  -28.4540 C   0  0  0  0  0  0  0  0  0  0  0  0
   -5.6170   24.8550  -26.8840 C   0  0  0  0  0  0  0  0  0  0  0  0
   -5.9340   24.6650  -25.3910 C   0  0  0  0  0  0  0  0  0  0  0  0
   -7.0980   23.8860  -25.2440 O   0  0  0  0  0  0  0  0  0  0  0  0
   -7.7390   23.9460  -23.9870 C   0  0  0  0  0  0  0  0  0  0  0  0
   -7.7320   22.5740  -23.2980 C   0  0  0  0  0  0  0  0  0  0  0  0
   -7.9590   21.5660  -24.2560 O   0  0  0  0  0  0  0  0  0  0  0  0
   -7.5310   20.2620  -23.9500 C   0  0  0  0  0  0  0  0  0  0  0  0
   -8.2240   19.2230  -24.8510 C   0  0  0  0  0  0  0  0  0  0  0  0
   -7.6640   19.1560  -26.1470 O   0  0  0  0  0  0  0  0  0  0  0  0
   -7.4630   17.8640  -26.6790 C   0  0  0  0  0  0  0  0  0  0  0  0
   -6.1270   17.8070  -27.4380 C   0  0  0  0  0  0  0  0  0  0  0  0
   -5.5150   16.5410  -27.3510 O   0  0  0  0  0  0  0  0  0  0  0  0
  -10.9710   29.1210  -22.4080 C   0  0  0  0  0  0  0  0  0  0  0  0
   -9.8920   28.4350  -23.0580 O   0  0  0  0  0  0  0  0  0  0  0  0
  -10.4250   29.8070  -21.1700 C   0  0  0  0  0  0  0  0  0  0  0  0
   -9.1410   30.3370  -21.5170 O   0  0  0  0  0  0  0  0  0  0  0  0
  1  5  1  0  0  0  0
  2  3  1  0  0  0  0
  3  1  1  0  0  0  0
  4  6  1  0  0  0  0
  5  4  1  0  0  0  0
  6  7  1  0  0  0  0
  7  8  1  0  0  0  0
  8  9  1  0  0  0  0
  9 10  1  0  0  0  0
 11 12  1  0  0  0  0
 11 10  1  0  0  0  0
 13 12  1  0  0  0  0
 14 13  1  0  0  0  0
 15 14  1  0  0  0  0
 16 17  1  0  0  0  0
 16 15  1  0  0  0  0
 18 20  1  0  0  0  0
 19 18  1  0  0  0  0
 21 20  1  0  0  0  0
M  END
